135

C -4.50000 -18.05200 -4.50000
C -3.37500 -16.10300 -4.50000
C -1.12500 -16.10300 -4.50000
C -3.37500 -20.00000 -4.50000
C -1.12500 -20.00000 -4.50000
C -4.50000 -18.05200  0.00000
C -3.37500 -16.10300  0.00000
C -1.12500 -16.10300  0.00000
C -3.37500 -20.00000  0.00000
C -1.12500 -20.00000  0.00000
C -4.50000 -18.05200  4.50000
C -3.37500 -16.10300  4.50000
C -1.12500 -16.10300  4.50000
C -3.37500 -20.00000  4.50000
C -1.12500 -20.00000  4.50000
C -4.50000  1.94800 -4.50000
C -3.37500  3.89700 -4.50000
C -1.12500  3.89700 -4.50000
C -3.37500  0.00000 -4.50000
C -1.12500  0.00000 -4.50000
C -4.50000  1.94800  0.00000
C -3.37500  3.89700  0.00000
C -1.12500  3.89700  0.00000
C -3.37500  0.00000  0.00000
C -1.12500  0.00000  0.00000
C -4.50000  1.94800  4.50000
C -3.37500  3.89700  4.50000
C -1.12500  3.89700  4.50000
C -3.37500  0.00000  4.50000
C -1.12500  0.00000  4.50000
C -4.50000 21.94800 -4.50000
C -3.37500 23.89700 -4.50000
C -1.12500 23.89700 -4.50000
C -3.37500 20.00000 -4.50000
C -1.12500 20.00000 -4.50000
C -4.50000 21.94800  0.00000
C -3.37500 23.89700  0.00000
C -1.12500 23.89700  0.00000
C -3.37500 20.00000  0.00000
C -1.12500 20.00000  0.00000
C -4.50000 21.94800  4.50000
C -3.37500 23.89700  4.50000
C -1.12500 23.89700  4.50000
C -3.37500 20.00000  4.50000
C -1.12500 20.00000  4.50000
C  0.00000 -18.05200 -4.50000
C  1.12500 -16.10300 -4.50000
C  3.37500 -16.10300 -4.50000
C  1.12500 -20.00000 -4.50000
C  3.37500 -20.00000 -4.50000
C  0.00000 -18.05200  0.00000
C  1.12500 -16.10300  0.00000
C  3.37500 -16.10300  0.00000
C  1.12500 -20.00000  0.00000
C  3.37500 -20.00000  0.00000
C  0.00000 -18.05200  4.50000
C  1.12500 -16.10300  4.50000
C  3.37500 -16.10300  4.50000
C  1.12500 -20.00000  4.50000
C  3.37500 -20.00000  4.50000
C  0.00000  1.94800 -4.50000
C  1.12500  3.89700 -4.50000
C  3.37500  3.89700 -4.50000
C  1.12500  0.00000 -4.50000
C  3.37500  0.00000 -4.50000
C  0.00000  1.94800  0.00000
C  1.12500  3.89700  0.00000
C  3.37500  3.89700  0.00000
C  1.12500  0.00000  0.00000
C  3.37500  0.00000  0.00000
C  0.00000  1.94800  4.50000
C  1.12500  3.89700  4.50000
C  3.37500  3.89700  4.50000
C  1.12500  0.00000  4.50000
C  3.37500  0.00000  4.50000
C  0.00000 21.94800 -4.50000
C  1.12500 23.89700 -4.50000
C  3.37500 23.89700 -4.50000
C  1.12500 20.00000 -4.50000
C  3.37500 20.00000 -4.50000
C  0.00000 21.94800  0.00000
C  1.12500 23.89700  0.00000
C  3.37500 23.89700  0.00000
C  1.12500 20.00000  0.00000
C  3.37500 20.00000  0.00000
C  0.00000 21.94800  4.50000
C  1.12500 23.89700  4.50000
C  3.37500 23.89700  4.50000
C  1.12500 20.00000  4.50000
C  3.37500 20.00000  4.50000
C  4.50000 -18.05200 -4.50000
C  5.62500 -16.10300 -4.50000
C  7.87500 -16.10300 -4.50000
C  5.62500 -20.00000 -4.50000
C  7.87500 -20.00000 -4.50000
C  4.50000 -18.05200  0.00000
C  5.62500 -16.10300  0.00000
C  7.87500 -16.10300  0.00000
C  5.62500 -20.00000  0.00000
C  7.87500 -20.00000  0.00000
C  4.50000 -18.05200  4.50000
C  5.62500 -16.10300  4.50000
C  7.87500 -16.10300  4.50000
C  5.62500 -20.00000  4.50000
C  7.87500 -20.00000  4.50000
C  4.50000  1.94800 -4.50000
C  5.62500  3.89700 -4.50000
C  7.87500  3.89700 -4.50000
C  5.62500  0.00000 -4.50000
C  7.87500  0.00000 -4.50000
C  4.50000  1.94800  0.00000
C  5.62500  3.89700  0.00000
C  7.87500  3.89700  0.00000
C  5.62500  0.00000  0.00000
C  7.87500  0.00000  0.00000
C  4.50000  1.94800  4.50000
C  5.62500  3.89700  4.50000
C  7.87500  3.89700  4.50000
C  5.62500  0.00000  4.50000
C  7.87500  0.00000  4.50000
C  4.50000 21.94800 -4.50000
C  5.62500 23.89700 -4.50000
C  7.87500 23.89700 -4.50000
C  5.62500 20.00000 -4.50000
C  7.87500 20.00000 -4.50000
C  4.50000 21.94800  0.00000
C  5.62500 23.89700  0.00000
C  7.87500 23.89700  0.00000
C  5.62500 20.00000  0.00000
C  7.87500 20.00000  0.00000
C  4.50000 21.94800  4.50000
C  5.62500 23.89700  4.50000
C  7.87500 23.89700  4.50000
C  5.62500 20.00000  4.50000
C  7.87500 20.00000  4.50000
