108

C -2.25000 -20.00000 -4.50000
C -4.50000 -18.70100 -4.50000
C -4.50000 -16.10300 -4.50000
C -2.25000 -14.80400 -4.50000
C -2.25000 -20.00000  0.00000
C -4.50000 -18.70100  0.00000
C -4.50000 -16.10300  0.00000
C -2.25000 -14.80400  0.00000
C -2.25000 -20.00000  4.50000
C -4.50000 -18.70100  4.50000
C -4.50000 -16.10300  4.50000
C -2.25000 -14.80400  4.50000
C -2.25000  0.00000 -4.50000
C -4.50000  1.29900 -4.50000
C -4.50000  3.89700 -4.50000
C -2.25000  5.19600 -4.50000
C -2.25000  0.00000  0.00000
C -4.50000  1.29900  0.00000
C -4.50000  3.89700  0.00000
C -2.25000  5.19600  0.00000
C -2.25000  0.00000  4.50000
C -4.50000  1.29900  4.50000
C -4.50000  3.89700  4.50000
C -2.25000  5.19600  4.50000
C -2.25000 20.00000 -4.50000
C -4.50000 21.29900 -4.50000
C -4.50000 23.89700 -4.50000
C -2.25000 25.19600 -4.50000
C -2.25000 20.00000  0.00000
C -4.50000 21.29900  0.00000
C -4.50000 23.89700  0.00000
C -2.25000 25.19600  0.00000
C -2.25000 20.00000  4.50000
C -4.50000 21.29900  4.50000
C -4.50000 23.89700  4.50000
C -2.25000 25.19600  4.50000
C  2.25000 -20.00000 -4.50000
C  0.00000 -18.70100 -4.50000
C  0.00000 -16.10300 -4.50000
C  2.25000 -14.80400 -4.50000
C  2.25000 -20.00000  0.00000
C  0.00000 -18.70100  0.00000
C  0.00000 -16.10300  0.00000
C  2.25000 -14.80400  0.00000
C  2.25000 -20.00000  4.50000
C  0.00000 -18.70100  4.50000
C  0.00000 -16.10300  4.50000
C  2.25000 -14.80400  4.50000
C  2.25000  0.00000 -4.50000
C  0.00000  1.29900 -4.50000
C  0.00000  3.89700 -4.50000
C  2.25000  5.19600 -4.50000
C  2.25000  0.00000  0.00000
C  0.00000  1.29900  0.00000
C  0.00000  3.89700  0.00000
C  2.25000  5.19600  0.00000
C  2.25000  0.00000  4.50000
C  0.00000  1.29900  4.50000
C  0.00000  3.89700  4.50000
C  2.25000  5.19600  4.50000
C  2.25000 20.00000 -4.50000
C  0.00000 21.29900 -4.50000
C  0.00000 23.89700 -4.50000
C  2.25000 25.19600 -4.50000
C  2.25000 20.00000  0.00000
C  0.00000 21.29900  0.00000
C  0.00000 23.89700  0.00000
C  2.25000 25.19600  0.00000
C  2.25000 20.00000  4.50000
C  0.00000 21.29900  4.50000
C  0.00000 23.89700  4.50000
C  2.25000 25.19600  4.50000
C  6.75000 -20.00000 -4.50000
C  4.50000 -18.70100 -4.50000
C  4.50000 -16.10300 -4.50000
C  6.75000 -14.80400 -4.50000
C  6.75000 -20.00000  0.00000
C  4.50000 -18.70100  0.00000
C  4.50000 -16.10300  0.00000
C  6.75000 -14.80400  0.00000
C  6.75000 -20.00000  4.50000
C  4.50000 -18.70100  4.50000
C  4.50000 -16.10300  4.50000
C  6.75000 -14.80400  4.50000
C  6.75000  0.00000 -4.50000
C  4.50000  1.29900 -4.50000
C  4.50000  3.89700 -4.50000
C  6.75000  5.19600 -4.50000
C  6.75000  0.00000  0.00000
C  4.50000  1.29900  0.00000
C  4.50000  3.89700  0.00000
C  6.75000  5.19600  0.00000
C  6.75000  0.00000  4.50000
C  4.50000  1.29900  4.50000
C  4.50000  3.89700  4.50000
C  6.75000  5.19600  4.50000
C  6.75000 20.00000 -4.50000
C  4.50000 21.29900 -4.50000
C  4.50000 23.89700 -4.50000
C  6.75000 25.19600 -4.50000
C  6.75000 20.00000  0.00000
C  4.50000 21.29900  0.00000
C  4.50000 23.89700  0.00000
C  6.75000 25.19600  0.00000
C  6.75000 20.00000  4.50000
C  4.50000 21.29900  4.50000
C  4.50000 23.89700  4.50000
C  6.75000 25.19600  4.50000
